propofol.pdbqt
 OpenBabel03252512473D

 31 31  0  0  0  0  0  0  0  0999 V2000
    2.4930    0.2380   -0.2320 C   0  0  0  0  0  0  0  0  0  0  0  0
    1.7710    1.4120   -0.0940 C   0  0  0  0  0  0  0  0  0  0  0  0
    0.3900    1.3840    0.0720 C   0  0  0  0  0  0  0  0  0  0  0  0
   -0.2570    0.1440    0.0950 C   0  0  0  0  0  0  0  0  0  0  0  0
    0.4640   -1.0500   -0.0090 C   0  0  0  0  0  0  0  0  0  0  0  0
    1.8420   -0.9840   -0.1890 C   0  0  0  0  0  0  0  0  0  0  0  0
    3.5650    0.2750   -0.3670 H   0  0  0  0  0  0  0  0  0  0  0  0
    2.2940    2.3570   -0.1190 H   0  0  0  0  0  0  0  0  0  0  0  0
    2.4210   -1.8890   -0.2980 H   0  0  0  0  0  0  0  0  0  0  0  0
   -0.3600    2.6930    0.2190 C   0  0  0  0  0  0  0  0  0  0  0  0
    0.3860    3.4870    0.2630 H   0  0  0  0  0  0  0  0  0  0  0  0
   -1.2410    2.9940   -1.0010 C   0  0  0  0  0  0  0  0  0  0  0  0
   -0.6730    2.9070   -1.9280 H   0  0  0  0  0  0  0  0  0  0  0  0
   -1.6350    4.0090   -0.9500 H   0  0  0  0  0  0  0  0  0  0  0  0
   -2.0960    2.3230   -1.0650 H   0  0  0  0  0  0  0  0  0  0  0  0
   -1.1430    2.7690    1.5380 C   0  0  0  0  0  0  0  0  0  0  0  0
   -0.4960    2.5540    2.3890 H   0  0  0  0  0  0  0  0  0  0  0  0
   -1.9720    2.0630    1.5650 H   0  0  0  0  0  0  0  0  0  0  0  0
   -1.5600    3.7650    1.6850 H   0  0  0  0  0  0  0  0  0  0  0  0
   -0.2260   -2.3980    0.0600 C   0  0  0  0  0  0  0  0  0  0  0  0
   -1.2180   -2.2610    0.4910 H   0  0  0  0  0  0  0  0  0  0  0  0
   -0.3880   -2.9980   -1.3420 C   0  0  0  0  0  0  0  0  0  0  0  0
   -0.9390   -2.3270   -2.0010 H   0  0  0  0  0  0  0  0  0  0  0  0
   -0.9320   -3.9420   -1.3030 H   0  0  0  0  0  0  0  0  0  0  0  0
    0.5810   -3.1930   -1.8040 H   0  0  0  0  0  0  0  0  0  0  0  0
    0.5010   -3.3690    1.0050 C   0  0  0  0  0  0  0  0  0  0  0  0
    0.6580   -2.9180    1.9850 H   0  0  0  0  0  0  0  0  0  0  0  0
   -0.0880   -4.2740    1.1530 H   0  0  0  0  0  0  0  0  0  0  0  0
    1.4710   -3.6790    0.6160 H   0  0  0  0  0  0  0  0  0  0  0  0
   -1.6310    0.0960    0.1990 O   0  0  0  0  0  0  0  0  0  0  0  0
   -1.9840   -0.1850   -0.6340 H   0  0  0  0  0  0  0  0  0  0  0  0
  1  6  2  0  0  0  0
  1  2  1  0  0  0  0
  2  3  2  0  0  0  0
  3  4  1  0  0  0  0
  3 10  1  0  0  0  0
  4 30  1  0  0  0  0
  5 20  1  0  0  0  0
  5  4  2  0  0  0  0
  6  5  1  0  0  0  0
  7  1  1  0  0  0  0
  8  2  1  0  0  0  0
  9  6  1  0  0  0  0
 10 11  1  0  0  0  0
 10 16  1  0  0  0  0
 12 14  1  0  0  0  0
 12 10  1  0  0  0  0
 13 12  1  0  0  0  0
 15 12  1  0  0  0  0
 16 18  1  0  0  0  0
 16 19  1  0  0  0  0
 16 17  1  0  0  0  0
 20 21  1  0  0  0  0
 20 26  1  0  0  0  0
 22 24  1  0  0  0  0
 22 20  1  0  0  0  0
 23 22  1  0  0  0  0
 25 22  1  0  0  0  0
 26 28  1  0  0  0  0
 26 27  1  0  0  0  0
 29 26  1  0  0  0  0
 31 30  1  0  0  0  0
M  END
>  <REMARK>
 SMILES CC(C)c1cccc(C(C)C)c1O
 SMILES IDX 6 1 5 2 4 3 12 4 8 5 7 6 2 10 1 12 3 16 9 20 10 22 11 26
 SMILES IDX 13 30
 H PARENT 6 7 5 8 7 9 2 11 1 13 1 14 1 15 3 17 3 18 3 19 9 21 10 23
 H PARENT 10 24 10 25 11 27 11 28 11 29 13 31

>  <TORSDO>
F 7

$$$$
