tr8.pdb
 OpenBabel05022511393D

 46 49  0  0  1  0  0  0  0  0999 V2000
    7.0800   29.5860   12.8570 N   0  0  0  0  0  0  0  0  0  0  0  0
    7.8120   30.3600   12.0390 C   0  0  0  0  0  0  0  0  0  0  0  0
    7.1400   31.3390   11.0300 C   0  0  1  0  0  0  0  0  0  0  0  0
    7.6980   32.6870   11.2940 N   0  0  0  0  0  0  0  0  0  0  0  0
    6.9530   33.7920   11.4890 C   0  0  0  0  0  0  0  0  0  0  0  0
    7.6780   34.9190   11.6810 O   0  0  0  0  0  0  0  0  0  0  0  0
    7.8840   35.3010   13.0370 C   0  0  0  0  0  0  0  0  0  0  0  0
    8.4330   36.7560   13.1820 C   0  0  0  0  0  0  0  0  0  0  0  0
    7.7120   37.6740   12.1590 C   0  0  0  0  0  0  0  0  0  0  0  0
    9.9650   36.7760   12.8980 C   0  0  0  0  0  0  0  0  0  0  0  0
    8.1770   37.2890   14.6320 C   0  0  0  0  0  0  0  0  0  0  0  0
    8.6650   36.3020   15.7290 C   0  0  0  0  0  0  0  0  0  0  0  0
    7.4740   35.8420   16.6100 C   0  0  0  0  0  0  0  0  0  0  0  0
    7.9970   34.8320   17.6570 C   0  0  0  0  0  0  0  0  0  0  0  0
    6.9070   34.3330   18.6390 C   0  0  0  0  0  0  0  0  0  0  0  0
    6.0470   33.2470   18.3540 C   0  0  0  0  0  0  0  0  0  0  0  0
    5.9300   32.3700   17.1370 C   0  0  0  0  0  0  0  0  0  0  0  0
    4.8480   31.4020   17.3900 N   0  0  0  0  0  0  0  0  0  0  0  0
    4.5170   30.4670   16.4490 C   0  0  0  0  0  0  0  0  0  0  0  0
    5.2380   30.5030   15.2980 O   0  0  0  0  0  0  0  0  0  0  0  0
    5.5030   29.2650   14.5960 C   0  0  1  0  0  0  0  0  0  0  0  0
    5.6110   29.5080   13.0950 C   0  0  0  0  0  0  0  0  0  0  0  0
    6.8190   28.6420   15.0520 C   0  0  0  0  0  0  0  0  0  0  0  0
    7.8340   28.8510   13.8990 C   0  0  1  0  0  0  0  0  0  0  0  0
    8.3500   27.5060   13.3550 C   0  0  0  0  0  0  0  0  0  0  0  0
    9.3170   26.8380   13.9990 N   0  0  0  0  0  0  0  0  0  0  0  0
    9.8300   25.5440   13.4980 C   0  0  2  0  0  0  0  0  0  0  0  0
    9.9230   24.4630   14.6920 B   0  0  0  0  0  0  0  0  0  0  0  0
    9.9330   23.1890   14.2160 O   0  0  0  0  0  0  0  0  0  0  0  0
    8.8720   24.6140   15.5290 O   0  0  0  0  0  0  0  0  0  0  0  0
   11.2280   25.7390   12.8320 C   0  0  0  0  0  0  0  0  0  0  0  0
   11.1100   26.4820   11.4750 C   0  0  0  0  0  0  0  0  0  0  0  0
   10.8200   27.8470   11.7060 O   0  0  0  0  0  0  0  0  0  0  0  0
    8.0200   27.1670   12.2610 O   0  0  0  0  0  0  0  0  0  0  0  0
    3.6450   29.6680   16.6280 O   0  0  0  0  0  0  0  0  0  0  0  0
    4.2800   31.6530   18.7460 C   0  0  0  0  0  0  0  0  0  0  0  0
    5.0910   32.8430   19.2990 C   0  0  0  0  0  0  0  0  0  0  0  0
    5.0100   33.5240   20.5200 C   0  0  0  0  0  0  0  0  0  0  0  0
    5.8680   34.5940   20.8130 C   0  0  0  0  0  0  0  0  0  0  0  0
    6.8190   34.9970   19.8710 C   0  0  0  0  0  0  0  0  0  0  0  0
    5.7620   33.7990   11.4100 O   0  0  0  0  0  0  0  0  0  0  0  0
    7.2760   30.9230    9.5190 C   0  0  0  0  0  0  0  0  0  0  0  0
    6.8240   32.0770    8.5690 C   0  0  0  0  0  0  0  0  0  0  0  0
    6.3500   29.7060    9.2350 C   0  0  0  0  0  0  0  0  0  0  0  0
    8.7370   30.5350    9.1430 C   0  0  0  0  0  0  0  0  0  0  0  0
    9.0000   30.2960   12.0840 O   0  0  0  0  0  0  0  0  0  0  0  0
  1 22  1  0  0  0  0
  1 24  1  0  0  0  0
  2 46  2  0  0  0  0
  2  1  1  0  0  0  0
  3 42  1  6  0  0  0
  3  4  1  0  0  0  0
  3  2  1  0  0  0  0
  4  5  1  0  0  0  0
  5  6  1  0  0  0  0
  6  7  1  0  0  0  0
  7  8  1  0  0  0  0
  8 11  1  0  0  0  0
  9  8  1  0  0  0  0
 10  8  1  0  0  0  0
 11 12  1  0  0  0  0
 12 13  1  0  0  0  0
 13 14  1  0  0  0  0
 14 15  1  0  0  0  0
 15 40  2  0  0  0  0
 16 15  1  0  0  0  0
 16 37  1  0  0  0  0
 17 18  1  0  0  0  0
 17 16  2  0  0  0  0
 18 36  1  0  0  0  0
 19 35  2  0  0  0  0
 19 18  1  0  0  0  0
 20 19  1  0  0  0  0
 21 22  1  6  0  0  0
 21 23  1  0  0  0  0
 21 20  1  0  0  0  0
 24 25  1  6  0  0  0
 24 23  1  0  0  0  0
 25 26  1  0  0  0  0
 27 31  1  1  0  0  0
 27 26  1  0  0  0  0
 27 28  1  0  0  0  0
 28 30  1  0  0  0  0
 29 28  1  0  0  0  0
 32 33  1  0  0  0  0
 32 31  1  0  0  0  0
 34 25  2  0  0  0  0
 36 37  2  0  0  0  0
 37 38  1  0  0  0  0
 38 39  2  0  0  0  0
 40 39  1  0  0  0  0
 41  5  2  0  0  0  0
 43 42  1  0  0  0  0
 44 42  1  0  0  0  0
 45 42  1  0  0  0  0
M  END
>  <REMARK>
 500   OG   SER A   139     O30  TR8 A  1181              1.90            
 600  ACID (TR8): 5 MEMBERED B-CONTAINING RING HAS RING OPENED            
 800 SITE_DESCRIPTION: BINDING SITE FOR RESIDUE TR8 A 1181                

>  <HET>
 TR8  A1181      46                                                       

>  <HETNAM>
     TR8 (1-{[(10-TERT-BUTYL-15,15-DIMETHYL-3,9,12-TRIOXO-6,7,9,          
   2 TR8  10,11,12,14,15,16,17,18,19,23,23A-TETRADECAHYDRO-1H,            
   3 TR8  5H-2,23:5,8-DIMETHANO-4,13,2,8,11-                              
   4 TR8  BENZODIOXATRIAZACYCLOHENICOSIN-7(3H)-YL)                        
   5 TR8  CARBONYL]AMINO}-3-HYDROXYPROPYL)(TRIHYDROXY)BORATE(1-)          

>  <FORMUL>
   5  TR8    C32 H52 B N4 O10 1-                                          

>  <LINK>
       OG  SER A 139                 B28 TR8 A1181     1555   1555  1.50  

$$$$
